// Matched conventional mixed 16-QAM read-path baseline testbench
// Same crossbar, carriers, BPFs, phase-window verification demodulator, and integration window.
simulator lang=spectre
include "../netlist/clean_128x128_crossbar.scs"

parameters rclosed_mix=1 ropen_mix=1G

VREFI_0 (conv_ref_i_0 0) vsource type=sine freq=250000000 ampl=1 phase=90
VREFQ_0 (conv_ref_q_0 0) vsource type=sine freq=250000000 ampl=1 phase=0
RREFI_0 (conv_ref_i_0 0) resistor r=1G
RREFQ_0 (conv_ref_q_0 0) resistor r=1G
VCONVWIN_0_00 (conv_win_0_00 0) vsource type=pulse val0=-1 val1=1 period=4.000000000000e-09 width=2.500000000000e-10 delay=0.000000000000e+00 rise=1p fall=1p
VCONVWIN_0_01 (conv_win_0_01 0) vsource type=pulse val0=-1 val1=1 period=4.000000000000e-09 width=2.500000000000e-10 delay=2.500000000000e-10 rise=1p fall=1p
VCONVWIN_0_02 (conv_win_0_02 0) vsource type=pulse val0=-1 val1=1 period=4.000000000000e-09 width=2.500000000000e-10 delay=5.000000000000e-10 rise=1p fall=1p
VCONVWIN_0_03 (conv_win_0_03 0) vsource type=pulse val0=-1 val1=1 period=4.000000000000e-09 width=2.500000000000e-10 delay=7.500000000000e-10 rise=1p fall=1p
VCONVWIN_0_04 (conv_win_0_04 0) vsource type=pulse val0=-1 val1=1 period=4.000000000000e-09 width=2.500000000000e-10 delay=1.000000000000e-09 rise=1p fall=1p
VCONVWIN_0_05 (conv_win_0_05 0) vsource type=pulse val0=-1 val1=1 period=4.000000000000e-09 width=2.500000000000e-10 delay=1.250000000000e-09 rise=1p fall=1p
VCONVWIN_0_06 (conv_win_0_06 0) vsource type=pulse val0=-1 val1=1 period=4.000000000000e-09 width=2.500000000000e-10 delay=1.500000000000e-09 rise=1p fall=1p
VCONVWIN_0_07 (conv_win_0_07 0) vsource type=pulse val0=-1 val1=1 period=4.000000000000e-09 width=2.500000000000e-10 delay=1.750000000000e-09 rise=1p fall=1p
VCONVWIN_0_08 (conv_win_0_08 0) vsource type=pulse val0=-1 val1=1 period=4.000000000000e-09 width=2.500000000000e-10 delay=2.000000000000e-09 rise=1p fall=1p
VCONVWIN_0_09 (conv_win_0_09 0) vsource type=pulse val0=-1 val1=1 period=4.000000000000e-09 width=2.500000000000e-10 delay=2.250000000000e-09 rise=1p fall=1p
VCONVWIN_0_10 (conv_win_0_10 0) vsource type=pulse val0=-1 val1=1 period=4.000000000000e-09 width=2.500000000000e-10 delay=2.500000000000e-09 rise=1p fall=1p
VCONVWIN_0_11 (conv_win_0_11 0) vsource type=pulse val0=-1 val1=1 period=4.000000000000e-09 width=2.500000000000e-10 delay=2.750000000000e-09 rise=1p fall=1p
VCONVWIN_0_12 (conv_win_0_12 0) vsource type=pulse val0=-1 val1=1 period=4.000000000000e-09 width=2.500000000000e-10 delay=3.000000000000e-09 rise=1p fall=1p
VCONVWIN_0_13 (conv_win_0_13 0) vsource type=pulse val0=-1 val1=1 period=4.000000000000e-09 width=2.500000000000e-10 delay=3.250000000000e-09 rise=1p fall=1p
VCONVWIN_0_14 (conv_win_0_14 0) vsource type=pulse val0=-1 val1=1 period=4.000000000000e-09 width=2.500000000000e-10 delay=3.500000000000e-09 rise=1p fall=1p
VCONVWIN_0_15 (conv_win_0_15 0) vsource type=pulse val0=-1 val1=1 period=4.000000000000e-09 width=2.500000000000e-10 delay=3.750000000000e-09 rise=1p fall=1p

VREFI_1 (conv_ref_i_1 0) vsource type=sine freq=500000000 ampl=1 phase=90
VREFQ_1 (conv_ref_q_1 0) vsource type=sine freq=500000000 ampl=1 phase=0
RREFI_1 (conv_ref_i_1 0) resistor r=1G
RREFQ_1 (conv_ref_q_1 0) resistor r=1G
VCONVWIN_1_00 (conv_win_1_00 0) vsource type=pulse val0=-1 val1=1 period=2.000000000000e-09 width=1.250000000000e-10 delay=0.000000000000e+00 rise=1p fall=1p
VCONVWIN_1_01 (conv_win_1_01 0) vsource type=pulse val0=-1 val1=1 period=2.000000000000e-09 width=1.250000000000e-10 delay=1.250000000000e-10 rise=1p fall=1p
VCONVWIN_1_02 (conv_win_1_02 0) vsource type=pulse val0=-1 val1=1 period=2.000000000000e-09 width=1.250000000000e-10 delay=2.500000000000e-10 rise=1p fall=1p
VCONVWIN_1_03 (conv_win_1_03 0) vsource type=pulse val0=-1 val1=1 period=2.000000000000e-09 width=1.250000000000e-10 delay=3.750000000000e-10 rise=1p fall=1p
VCONVWIN_1_04 (conv_win_1_04 0) vsource type=pulse val0=-1 val1=1 period=2.000000000000e-09 width=1.250000000000e-10 delay=5.000000000000e-10 rise=1p fall=1p
VCONVWIN_1_05 (conv_win_1_05 0) vsource type=pulse val0=-1 val1=1 period=2.000000000000e-09 width=1.250000000000e-10 delay=6.250000000000e-10 rise=1p fall=1p
VCONVWIN_1_06 (conv_win_1_06 0) vsource type=pulse val0=-1 val1=1 period=2.000000000000e-09 width=1.250000000000e-10 delay=7.500000000000e-10 rise=1p fall=1p
VCONVWIN_1_07 (conv_win_1_07 0) vsource type=pulse val0=-1 val1=1 period=2.000000000000e-09 width=1.250000000000e-10 delay=8.750000000000e-10 rise=1p fall=1p
VCONVWIN_1_08 (conv_win_1_08 0) vsource type=pulse val0=-1 val1=1 period=2.000000000000e-09 width=1.250000000000e-10 delay=1.000000000000e-09 rise=1p fall=1p
VCONVWIN_1_09 (conv_win_1_09 0) vsource type=pulse val0=-1 val1=1 period=2.000000000000e-09 width=1.250000000000e-10 delay=1.125000000000e-09 rise=1p fall=1p
VCONVWIN_1_10 (conv_win_1_10 0) vsource type=pulse val0=-1 val1=1 period=2.000000000000e-09 width=1.250000000000e-10 delay=1.250000000000e-09 rise=1p fall=1p
VCONVWIN_1_11 (conv_win_1_11 0) vsource type=pulse val0=-1 val1=1 period=2.000000000000e-09 width=1.250000000000e-10 delay=1.375000000000e-09 rise=1p fall=1p
VCONVWIN_1_12 (conv_win_1_12 0) vsource type=pulse val0=-1 val1=1 period=2.000000000000e-09 width=1.250000000000e-10 delay=1.500000000000e-09 rise=1p fall=1p
VCONVWIN_1_13 (conv_win_1_13 0) vsource type=pulse val0=-1 val1=1 period=2.000000000000e-09 width=1.250000000000e-10 delay=1.625000000000e-09 rise=1p fall=1p
VCONVWIN_1_14 (conv_win_1_14 0) vsource type=pulse val0=-1 val1=1 period=2.000000000000e-09 width=1.250000000000e-10 delay=1.750000000000e-09 rise=1p fall=1p
VCONVWIN_1_15 (conv_win_1_15 0) vsource type=pulse val0=-1 val1=1 period=2.000000000000e-09 width=1.250000000000e-10 delay=1.875000000000e-09 rise=1p fall=1p

VREFI_2 (conv_ref_i_2 0) vsource type=sine freq=750000000 ampl=1 phase=90
VREFQ_2 (conv_ref_q_2 0) vsource type=sine freq=750000000 ampl=1 phase=0
RREFI_2 (conv_ref_i_2 0) resistor r=1G
RREFQ_2 (conv_ref_q_2 0) resistor r=1G
VCONVWIN_2_00 (conv_win_2_00 0) vsource type=pulse val0=-1 val1=1 period=1.333333333333e-09 width=8.333333333333e-11 delay=0.000000000000e+00 rise=1p fall=1p
VCONVWIN_2_01 (conv_win_2_01 0) vsource type=pulse val0=-1 val1=1 period=1.333333333333e-09 width=8.333333333333e-11 delay=8.333333333333e-11 rise=1p fall=1p
VCONVWIN_2_02 (conv_win_2_02 0) vsource type=pulse val0=-1 val1=1 period=1.333333333333e-09 width=8.333333333333e-11 delay=1.666666666667e-10 rise=1p fall=1p
VCONVWIN_2_03 (conv_win_2_03 0) vsource type=pulse val0=-1 val1=1 period=1.333333333333e-09 width=8.333333333333e-11 delay=2.500000000000e-10 rise=1p fall=1p
VCONVWIN_2_04 (conv_win_2_04 0) vsource type=pulse val0=-1 val1=1 period=1.333333333333e-09 width=8.333333333333e-11 delay=3.333333333333e-10 rise=1p fall=1p
VCONVWIN_2_05 (conv_win_2_05 0) vsource type=pulse val0=-1 val1=1 period=1.333333333333e-09 width=8.333333333333e-11 delay=4.166666666667e-10 rise=1p fall=1p
VCONVWIN_2_06 (conv_win_2_06 0) vsource type=pulse val0=-1 val1=1 period=1.333333333333e-09 width=8.333333333333e-11 delay=5.000000000000e-10 rise=1p fall=1p
VCONVWIN_2_07 (conv_win_2_07 0) vsource type=pulse val0=-1 val1=1 period=1.333333333333e-09 width=8.333333333333e-11 delay=5.833333333333e-10 rise=1p fall=1p
VCONVWIN_2_08 (conv_win_2_08 0) vsource type=pulse val0=-1 val1=1 period=1.333333333333e-09 width=8.333333333333e-11 delay=6.666666666667e-10 rise=1p fall=1p
VCONVWIN_2_09 (conv_win_2_09 0) vsource type=pulse val0=-1 val1=1 period=1.333333333333e-09 width=8.333333333333e-11 delay=7.500000000000e-10 rise=1p fall=1p
VCONVWIN_2_10 (conv_win_2_10 0) vsource type=pulse val0=-1 val1=1 period=1.333333333333e-09 width=8.333333333333e-11 delay=8.333333333333e-10 rise=1p fall=1p
VCONVWIN_2_11 (conv_win_2_11 0) vsource type=pulse val0=-1 val1=1 period=1.333333333333e-09 width=8.333333333333e-11 delay=9.166666666667e-10 rise=1p fall=1p
VCONVWIN_2_12 (conv_win_2_12 0) vsource type=pulse val0=-1 val1=1 period=1.333333333333e-09 width=8.333333333333e-11 delay=1.000000000000e-09 rise=1p fall=1p
VCONVWIN_2_13 (conv_win_2_13 0) vsource type=pulse val0=-1 val1=1 period=1.333333333333e-09 width=8.333333333333e-11 delay=1.083333333333e-09 rise=1p fall=1p
VCONVWIN_2_14 (conv_win_2_14 0) vsource type=pulse val0=-1 val1=1 period=1.333333333333e-09 width=8.333333333333e-11 delay=1.166666666667e-09 rise=1p fall=1p
VCONVWIN_2_15 (conv_win_2_15 0) vsource type=pulse val0=-1 val1=1 period=1.333333333333e-09 width=8.333333333333e-11 delay=1.250000000000e-09 rise=1p fall=1p

VREFI_3 (conv_ref_i_3 0) vsource type=sine freq=1000000000 ampl=1 phase=90
VREFQ_3 (conv_ref_q_3 0) vsource type=sine freq=1000000000 ampl=1 phase=0
RREFI_3 (conv_ref_i_3 0) resistor r=1G
RREFQ_3 (conv_ref_q_3 0) resistor r=1G
VCONVWIN_3_00 (conv_win_3_00 0) vsource type=pulse val0=-1 val1=1 period=1.000000000000e-09 width=6.250000000000e-11 delay=0.000000000000e+00 rise=1p fall=1p
VCONVWIN_3_01 (conv_win_3_01 0) vsource type=pulse val0=-1 val1=1 period=1.000000000000e-09 width=6.250000000000e-11 delay=6.250000000000e-11 rise=1p fall=1p
VCONVWIN_3_02 (conv_win_3_02 0) vsource type=pulse val0=-1 val1=1 period=1.000000000000e-09 width=6.250000000000e-11 delay=1.250000000000e-10 rise=1p fall=1p
VCONVWIN_3_03 (conv_win_3_03 0) vsource type=pulse val0=-1 val1=1 period=1.000000000000e-09 width=6.250000000000e-11 delay=1.875000000000e-10 rise=1p fall=1p
VCONVWIN_3_04 (conv_win_3_04 0) vsource type=pulse val0=-1 val1=1 period=1.000000000000e-09 width=6.250000000000e-11 delay=2.500000000000e-10 rise=1p fall=1p
VCONVWIN_3_05 (conv_win_3_05 0) vsource type=pulse val0=-1 val1=1 period=1.000000000000e-09 width=6.250000000000e-11 delay=3.125000000000e-10 rise=1p fall=1p
VCONVWIN_3_06 (conv_win_3_06 0) vsource type=pulse val0=-1 val1=1 period=1.000000000000e-09 width=6.250000000000e-11 delay=3.750000000000e-10 rise=1p fall=1p
VCONVWIN_3_07 (conv_win_3_07 0) vsource type=pulse val0=-1 val1=1 period=1.000000000000e-09 width=6.250000000000e-11 delay=4.375000000000e-10 rise=1p fall=1p
VCONVWIN_3_08 (conv_win_3_08 0) vsource type=pulse val0=-1 val1=1 period=1.000000000000e-09 width=6.250000000000e-11 delay=5.000000000000e-10 rise=1p fall=1p
VCONVWIN_3_09 (conv_win_3_09 0) vsource type=pulse val0=-1 val1=1 period=1.000000000000e-09 width=6.250000000000e-11 delay=5.625000000000e-10 rise=1p fall=1p
VCONVWIN_3_10 (conv_win_3_10 0) vsource type=pulse val0=-1 val1=1 period=1.000000000000e-09 width=6.250000000000e-11 delay=6.250000000000e-10 rise=1p fall=1p
VCONVWIN_3_11 (conv_win_3_11 0) vsource type=pulse val0=-1 val1=1 period=1.000000000000e-09 width=6.250000000000e-11 delay=6.875000000000e-10 rise=1p fall=1p
VCONVWIN_3_12 (conv_win_3_12 0) vsource type=pulse val0=-1 val1=1 period=1.000000000000e-09 width=6.250000000000e-11 delay=7.500000000000e-10 rise=1p fall=1p
VCONVWIN_3_13 (conv_win_3_13 0) vsource type=pulse val0=-1 val1=1 period=1.000000000000e-09 width=6.250000000000e-11 delay=8.125000000000e-10 rise=1p fall=1p
VCONVWIN_3_14 (conv_win_3_14 0) vsource type=pulse val0=-1 val1=1 period=1.000000000000e-09 width=6.250000000000e-11 delay=8.750000000000e-10 rise=1p fall=1p
VCONVWIN_3_15 (conv_win_3_15 0) vsource type=pulse val0=-1 val1=1 period=1.000000000000e-09 width=6.250000000000e-11 delay=9.375000000000e-10 rise=1p fall=1p

// conventional mixed baseline bl000, carrier_0: 250000000 Hz
CCONVBPF_c000_0 (bl000 n_conv_cbpf_c000_0) capacitor c=4.052847345694e-13
LCONVBPF_c000_0 (n_conv_cbpf_c000_0 conv_bpf_c000_0) inductor l=1.000000000000e-06
RCONVBPF_c000_0 (conv_bpf_c000_0 0) resistor r=7.853981633974e+01
ECONVI_c000_0_00 (conv_i_src_c000_0_00 0 conv_bpf_c000_0 0) vcvs gain=9.807852804032e-01
SCONVI_c000_0_00 (conv_i_src_c000_0_00 conv_i_c000_0 conv_win_0_00 0) relay vt1=-1m vt2=1m ropen=ropen_mix rclosed=rclosed_mix
ECONVQ_c000_0_00 (conv_q_src_c000_0_00 0 conv_bpf_c000_0 0) vcvs gain=1.950903220161e-01
SCONVQ_c000_0_00 (conv_q_src_c000_0_00 conv_q_c000_0 conv_win_0_00 0) relay vt1=-1m vt2=1m ropen=ropen_mix rclosed=rclosed_mix
ECONVI_c000_0_01 (conv_i_src_c000_0_01 0 conv_bpf_c000_0 0) vcvs gain=8.314696123025e-01
SCONVI_c000_0_01 (conv_i_src_c000_0_01 conv_i_c000_0 conv_win_0_01 0) relay vt1=-1m vt2=1m ropen=ropen_mix rclosed=rclosed_mix
ECONVQ_c000_0_01 (conv_q_src_c000_0_01 0 conv_bpf_c000_0 0) vcvs gain=5.555702330196e-01
SCONVQ_c000_0_01 (conv_q_src_c000_0_01 conv_q_c000_0 conv_win_0_01 0) relay vt1=-1m vt2=1m ropen=ropen_mix rclosed=rclosed_mix
ECONVI_c000_0_02 (conv_i_src_c000_0_02 0 conv_bpf_c000_0 0) vcvs gain=5.555702330196e-01
SCONVI_c000_0_02 (conv_i_src_c000_0_02 conv_i_c000_0 conv_win_0_02 0) relay vt1=-1m vt2=1m ropen=ropen_mix rclosed=rclosed_mix
ECONVQ_c000_0_02 (conv_q_src_c000_0_02 0 conv_bpf_c000_0 0) vcvs gain=8.314696123025e-01
SCONVQ_c000_0_02 (conv_q_src_c000_0_02 conv_q_c000_0 conv_win_0_02 0) relay vt1=-1m vt2=1m ropen=ropen_mix rclosed=rclosed_mix
ECONVI_c000_0_03 (conv_i_src_c000_0_03 0 conv_bpf_c000_0 0) vcvs gain=1.950903220161e-01
SCONVI_c000_0_03 (conv_i_src_c000_0_03 conv_i_c000_0 conv_win_0_03 0) relay vt1=-1m vt2=1m ropen=ropen_mix rclosed=rclosed_mix
ECONVQ_c000_0_03 (conv_q_src_c000_0_03 0 conv_bpf_c000_0 0) vcvs gain=9.807852804032e-01
SCONVQ_c000_0_03 (conv_q_src_c000_0_03 conv_q_c000_0 conv_win_0_03 0) relay vt1=-1m vt2=1m ropen=ropen_mix rclosed=rclosed_mix
ECONVI_c000_0_04 (conv_i_src_c000_0_04 0 conv_bpf_c000_0 0) vcvs gain=-1.950903220161e-01
SCONVI_c000_0_04 (conv_i_src_c000_0_04 conv_i_c000_0 conv_win_0_04 0) relay vt1=-1m vt2=1m ropen=ropen_mix rclosed=rclosed_mix
ECONVQ_c000_0_04 (conv_q_src_c000_0_04 0 conv_bpf_c000_0 0) vcvs gain=9.807852804032e-01
SCONVQ_c000_0_04 (conv_q_src_c000_0_04 conv_q_c000_0 conv_win_0_04 0) relay vt1=-1m vt2=1m ropen=ropen_mix rclosed=rclosed_mix
ECONVI_c000_0_05 (conv_i_src_c000_0_05 0 conv_bpf_c000_0 0) vcvs gain=-5.555702330196e-01
SCONVI_c000_0_05 (conv_i_src_c000_0_05 conv_i_c000_0 conv_win_0_05 0) relay vt1=-1m vt2=1m ropen=ropen_mix rclosed=rclosed_mix
ECONVQ_c000_0_05 (conv_q_src_c000_0_05 0 conv_bpf_c000_0 0) vcvs gain=8.314696123025e-01
SCONVQ_c000_0_05 (conv_q_src_c000_0_05 conv_q_c000_0 conv_win_0_05 0) relay vt1=-1m vt2=1m ropen=ropen_mix rclosed=rclosed_mix
ECONVI_c000_0_06 (conv_i_src_c000_0_06 0 conv_bpf_c000_0 0) vcvs gain=-8.314696123025e-01
SCONVI_c000_0_06 (conv_i_src_c000_0_06 conv_i_c000_0 conv_win_0_06 0) relay vt1=-1m vt2=1m ropen=ropen_mix rclosed=rclosed_mix
ECONVQ_c000_0_06 (conv_q_src_c000_0_06 0 conv_bpf_c000_0 0) vcvs gain=5.555702330196e-01
SCONVQ_c000_0_06 (conv_q_src_c000_0_06 conv_q_c000_0 conv_win_0_06 0) relay vt1=-1m vt2=1m ropen=ropen_mix rclosed=rclosed_mix
ECONVI_c000_0_07 (conv_i_src_c000_0_07 0 conv_bpf_c000_0 0) vcvs gain=-9.807852804032e-01
SCONVI_c000_0_07 (conv_i_src_c000_0_07 conv_i_c000_0 conv_win_0_07 0) relay vt1=-1m vt2=1m ropen=ropen_mix rclosed=rclosed_mix
ECONVQ_c000_0_07 (conv_q_src_c000_0_07 0 conv_bpf_c000_0 0) vcvs gain=1.950903220161e-01
SCONVQ_c000_0_07 (conv_q_src_c000_0_07 conv_q_c000_0 conv_win_0_07 0) relay vt1=-1m vt2=1m ropen=ropen_mix rclosed=rclosed_mix
ECONVI_c000_0_08 (conv_i_src_c000_0_08 0 conv_bpf_c000_0 0) vcvs gain=-9.807852804032e-01
SCONVI_c000_0_08 (conv_i_src_c000_0_08 conv_i_c000_0 conv_win_0_08 0) relay vt1=-1m vt2=1m ropen=ropen_mix rclosed=rclosed_mix
ECONVQ_c000_0_08 (conv_q_src_c000_0_08 0 conv_bpf_c000_0 0) vcvs gain=-1.950903220161e-01
SCONVQ_c000_0_08 (conv_q_src_c000_0_08 conv_q_c000_0 conv_win_0_08 0) relay vt1=-1m vt2=1m ropen=ropen_mix rclosed=rclosed_mix
ECONVI_c000_0_09 (conv_i_src_c000_0_09 0 conv_bpf_c000_0 0) vcvs gain=-8.314696123025e-01
SCONVI_c000_0_09 (conv_i_src_c000_0_09 conv_i_c000_0 conv_win_0_09 0) relay vt1=-1m vt2=1m ropen=ropen_mix rclosed=rclosed_mix
ECONVQ_c000_0_09 (conv_q_src_c000_0_09 0 conv_bpf_c000_0 0) vcvs gain=-5.555702330196e-01
SCONVQ_c000_0_09 (conv_q_src_c000_0_09 conv_q_c000_0 conv_win_0_09 0) relay vt1=-1m vt2=1m ropen=ropen_mix rclosed=rclosed_mix
ECONVI_c000_0_10 (conv_i_src_c000_0_10 0 conv_bpf_c000_0 0) vcvs gain=-5.555702330196e-01
SCONVI_c000_0_10 (conv_i_src_c000_0_10 conv_i_c000_0 conv_win_0_10 0) relay vt1=-1m vt2=1m ropen=ropen_mix rclosed=rclosed_mix
ECONVQ_c000_0_10 (conv_q_src_c000_0_10 0 conv_bpf_c000_0 0) vcvs gain=-8.314696123025e-01
SCONVQ_c000_0_10 (conv_q_src_c000_0_10 conv_q_c000_0 conv_win_0_10 0) relay vt1=-1m vt2=1m ropen=ropen_mix rclosed=rclosed_mix
ECONVI_c000_0_11 (conv_i_src_c000_0_11 0 conv_bpf_c000_0 0) vcvs gain=-1.950903220161e-01
SCONVI_c000_0_11 (conv_i_src_c000_0_11 conv_i_c000_0 conv_win_0_11 0) relay vt1=-1m vt2=1m ropen=ropen_mix rclosed=rclosed_mix
ECONVQ_c000_0_11 (conv_q_src_c000_0_11 0 conv_bpf_c000_0 0) vcvs gain=-9.807852804032e-01
SCONVQ_c000_0_11 (conv_q_src_c000_0_11 conv_q_c000_0 conv_win_0_11 0) relay vt1=-1m vt2=1m ropen=ropen_mix rclosed=rclosed_mix
ECONVI_c000_0_12 (conv_i_src_c000_0_12 0 conv_bpf_c000_0 0) vcvs gain=1.950903220161e-01
SCONVI_c000_0_12 (conv_i_src_c000_0_12 conv_i_c000_0 conv_win_0_12 0) relay vt1=-1m vt2=1m ropen=ropen_mix rclosed=rclosed_mix
ECONVQ_c000_0_12 (conv_q_src_c000_0_12 0 conv_bpf_c000_0 0) vcvs gain=-9.807852804032e-01
SCONVQ_c000_0_12 (conv_q_src_c000_0_12 conv_q_c000_0 conv_win_0_12 0) relay vt1=-1m vt2=1m ropen=ropen_mix rclosed=rclosed_mix
ECONVI_c000_0_13 (conv_i_src_c000_0_13 0 conv_bpf_c000_0 0) vcvs gain=5.555702330196e-01
SCONVI_c000_0_13 (conv_i_src_c000_0_13 conv_i_c000_0 conv_win_0_13 0) relay vt1=-1m vt2=1m ropen=ropen_mix rclosed=rclosed_mix
ECONVQ_c000_0_13 (conv_q_src_c000_0_13 0 conv_bpf_c000_0 0) vcvs gain=-8.314696123025e-01
SCONVQ_c000_0_13 (conv_q_src_c000_0_13 conv_q_c000_0 conv_win_0_13 0) relay vt1=-1m vt2=1m ropen=ropen_mix rclosed=rclosed_mix
ECONVI_c000_0_14 (conv_i_src_c000_0_14 0 conv_bpf_c000_0 0) vcvs gain=8.314696123025e-01
SCONVI_c000_0_14 (conv_i_src_c000_0_14 conv_i_c000_0 conv_win_0_14 0) relay vt1=-1m vt2=1m ropen=ropen_mix rclosed=rclosed_mix
ECONVQ_c000_0_14 (conv_q_src_c000_0_14 0 conv_bpf_c000_0 0) vcvs gain=-5.555702330196e-01
SCONVQ_c000_0_14 (conv_q_src_c000_0_14 conv_q_c000_0 conv_win_0_14 0) relay vt1=-1m vt2=1m ropen=ropen_mix rclosed=rclosed_mix
ECONVI_c000_0_15 (conv_i_src_c000_0_15 0 conv_bpf_c000_0 0) vcvs gain=9.807852804032e-01
SCONVI_c000_0_15 (conv_i_src_c000_0_15 conv_i_c000_0 conv_win_0_15 0) relay vt1=-1m vt2=1m ropen=ropen_mix rclosed=rclosed_mix
ECONVQ_c000_0_15 (conv_q_src_c000_0_15 0 conv_bpf_c000_0 0) vcvs gain=-1.950903220161e-01
SCONVQ_c000_0_15 (conv_q_src_c000_0_15 conv_q_c000_0 conv_win_0_15 0) relay vt1=-1m vt2=1m ropen=ropen_mix rclosed=rclosed_mix
RCONVI_c000_0 (conv_i_c000_0 0) resistor r=1G
RCONVQ_c000_0 (conv_q_c000_0 0) resistor r=1G
RCONVINTI_c000_0 (conv_i_c000_0 ConvIcar_c000_0) resistor r=1k
CCONVINTI_c000_0 (ConvIcar_c000_0 0) capacitor c=80p
RCONVINTQ_c000_0 (conv_q_c000_0 ConvQcar_c000_0) resistor r=1k
CCONVINTQ_c000_0 (ConvQcar_c000_0 0) capacitor c=80p
save conv_bpf_c000_0 ConvIcar_c000_0 ConvQcar_c000_0

// conventional mixed baseline bl000, carrier_1: 500000000 Hz
CCONVBPF_c000_1 (bl000 n_conv_cbpf_c000_1) capacitor c=1.013211836423e-13
LCONVBPF_c000_1 (n_conv_cbpf_c000_1 conv_bpf_c000_1) inductor l=1.000000000000e-06
RCONVBPF_c000_1 (conv_bpf_c000_1 0) resistor r=1.570796326795e+02
ECONVI_c000_1_00 (conv_i_src_c000_1_00 0 conv_bpf_c000_1 0) vcvs gain=9.807852804032e-01
SCONVI_c000_1_00 (conv_i_src_c000_1_00 conv_i_c000_1 conv_win_1_00 0) relay vt1=-1m vt2=1m ropen=ropen_mix rclosed=rclosed_mix
ECONVQ_c000_1_00 (conv_q_src_c000_1_00 0 conv_bpf_c000_1 0) vcvs gain=1.950903220161e-01
SCONVQ_c000_1_00 (conv_q_src_c000_1_00 conv_q_c000_1 conv_win_1_00 0) relay vt1=-1m vt2=1m ropen=ropen_mix rclosed=rclosed_mix
ECONVI_c000_1_01 (conv_i_src_c000_1_01 0 conv_bpf_c000_1 0) vcvs gain=8.314696123025e-01
SCONVI_c000_1_01 (conv_i_src_c000_1_01 conv_i_c000_1 conv_win_1_01 0) relay vt1=-1m vt2=1m ropen=ropen_mix rclosed=rclosed_mix
ECONVQ_c000_1_01 (conv_q_src_c000_1_01 0 conv_bpf_c000_1 0) vcvs gain=5.555702330196e-01
SCONVQ_c000_1_01 (conv_q_src_c000_1_01 conv_q_c000_1 conv_win_1_01 0) relay vt1=-1m vt2=1m ropen=ropen_mix rclosed=rclosed_mix
ECONVI_c000_1_02 (conv_i_src_c000_1_02 0 conv_bpf_c000_1 0) vcvs gain=5.555702330196e-01
SCONVI_c000_1_02 (conv_i_src_c000_1_02 conv_i_c000_1 conv_win_1_02 0) relay vt1=-1m vt2=1m ropen=ropen_mix rclosed=rclosed_mix
ECONVQ_c000_1_02 (conv_q_src_c000_1_02 0 conv_bpf_c000_1 0) vcvs gain=8.314696123025e-01
SCONVQ_c000_1_02 (conv_q_src_c000_1_02 conv_q_c000_1 conv_win_1_02 0) relay vt1=-1m vt2=1m ropen=ropen_mix rclosed=rclosed_mix
ECONVI_c000_1_03 (conv_i_src_c000_1_03 0 conv_bpf_c000_1 0) vcvs gain=1.950903220161e-01
SCONVI_c000_1_03 (conv_i_src_c000_1_03 conv_i_c000_1 conv_win_1_03 0) relay vt1=-1m vt2=1m ropen=ropen_mix rclosed=rclosed_mix
ECONVQ_c000_1_03 (conv_q_src_c000_1_03 0 conv_bpf_c000_1 0) vcvs gain=9.807852804032e-01
SCONVQ_c000_1_03 (conv_q_src_c000_1_03 conv_q_c000_1 conv_win_1_03 0) relay vt1=-1m vt2=1m ropen=ropen_mix rclosed=rclosed_mix
ECONVI_c000_1_04 (conv_i_src_c000_1_04 0 conv_bpf_c000_1 0) vcvs gain=-1.950903220161e-01
SCONVI_c000_1_04 (conv_i_src_c000_1_04 conv_i_c000_1 conv_win_1_04 0) relay vt1=-1m vt2=1m ropen=ropen_mix rclosed=rclosed_mix
ECONVQ_c000_1_04 (conv_q_src_c000_1_04 0 conv_bpf_c000_1 0) vcvs gain=9.807852804032e-01
SCONVQ_c000_1_04 (conv_q_src_c000_1_04 conv_q_c000_1 conv_win_1_04 0) relay vt1=-1m vt2=1m ropen=ropen_mix rclosed=rclosed_mix
ECONVI_c000_1_05 (conv_i_src_c000_1_05 0 conv_bpf_c000_1 0) vcvs gain=-5.555702330196e-01
SCONVI_c000_1_05 (conv_i_src_c000_1_05 conv_i_c000_1 conv_win_1_05 0) relay vt1=-1m vt2=1m ropen=ropen_mix rclosed=rclosed_mix
ECONVQ_c000_1_05 (conv_q_src_c000_1_05 0 conv_bpf_c000_1 0) vcvs gain=8.314696123025e-01
SCONVQ_c000_1_05 (conv_q_src_c000_1_05 conv_q_c000_1 conv_win_1_05 0) relay vt1=-1m vt2=1m ropen=ropen_mix rclosed=rclosed_mix
ECONVI_c000_1_06 (conv_i_src_c000_1_06 0 conv_bpf_c000_1 0) vcvs gain=-8.314696123025e-01
SCONVI_c000_1_06 (conv_i_src_c000_1_06 conv_i_c000_1 conv_win_1_06 0) relay vt1=-1m vt2=1m ropen=ropen_mix rclosed=rclosed_mix
ECONVQ_c000_1_06 (conv_q_src_c000_1_06 0 conv_bpf_c000_1 0) vcvs gain=5.555702330196e-01
SCONVQ_c000_1_06 (conv_q_src_c000_1_06 conv_q_c000_1 conv_win_1_06 0) relay vt1=-1m vt2=1m ropen=ropen_mix rclosed=rclosed_mix
ECONVI_c000_1_07 (conv_i_src_c000_1_07 0 conv_bpf_c000_1 0) vcvs gain=-9.807852804032e-01
SCONVI_c000_1_07 (conv_i_src_c000_1_07 conv_i_c000_1 conv_win_1_07 0) relay vt1=-1m vt2=1m ropen=ropen_mix rclosed=rclosed_mix
ECONVQ_c000_1_07 (conv_q_src_c000_1_07 0 conv_bpf_c000_1 0) vcvs gain=1.950903220161e-01
SCONVQ_c000_1_07 (conv_q_src_c000_1_07 conv_q_c000_1 conv_win_1_07 0) relay vt1=-1m vt2=1m ropen=ropen_mix rclosed=rclosed_mix
ECONVI_c000_1_08 (conv_i_src_c000_1_08 0 conv_bpf_c000_1 0) vcvs gain=-9.807852804032e-01
SCONVI_c000_1_08 (conv_i_src_c000_1_08 conv_i_c000_1 conv_win_1_08 0) relay vt1=-1m vt2=1m ropen=ropen_mix rclosed=rclosed_mix
ECONVQ_c000_1_08 (conv_q_src_c000_1_08 0 conv_bpf_c000_1 0) vcvs gain=-1.950903220161e-01
SCONVQ_c000_1_08 (conv_q_src_c000_1_08 conv_q_c000_1 conv_win_1_08 0) relay vt1=-1m vt2=1m ropen=ropen_mix rclosed=rclosed_mix
ECONVI_c000_1_09 (conv_i_src_c000_1_09 0 conv_bpf_c000_1 0) vcvs gain=-8.314696123025e-01
SCONVI_c000_1_09 (conv_i_src_c000_1_09 conv_i_c000_1 conv_win_1_09 0) relay vt1=-1m vt2=1m ropen=ropen_mix rclosed=rclosed_mix
ECONVQ_c000_1_09 (conv_q_src_c000_1_09 0 conv_bpf_c000_1 0) vcvs gain=-5.555702330196e-01
SCONVQ_c000_1_09 (conv_q_src_c000_1_09 conv_q_c000_1 conv_win_1_09 0) relay vt1=-1m vt2=1m ropen=ropen_mix rclosed=rclosed_mix
ECONVI_c000_1_10 (conv_i_src_c000_1_10 0 conv_bpf_c000_1 0) vcvs gain=-5.555702330196e-01
SCONVI_c000_1_10 (conv_i_src_c000_1_10 conv_i_c000_1 conv_win_1_10 0) relay vt1=-1m vt2=1m ropen=ropen_mix rclosed=rclosed_mix
ECONVQ_c000_1_10 (conv_q_src_c000_1_10 0 conv_bpf_c000_1 0) vcvs gain=-8.314696123025e-01
SCONVQ_c000_1_10 (conv_q_src_c000_1_10 conv_q_c000_1 conv_win_1_10 0) relay vt1=-1m vt2=1m ropen=ropen_mix rclosed=rclosed_mix
ECONVI_c000_1_11 (conv_i_src_c000_1_11 0 conv_bpf_c000_1 0) vcvs gain=-1.950903220161e-01
SCONVI_c000_1_11 (conv_i_src_c000_1_11 conv_i_c000_1 conv_win_1_11 0) relay vt1=-1m vt2=1m ropen=ropen_mix rclosed=rclosed_mix
ECONVQ_c000_1_11 (conv_q_src_c000_1_11 0 conv_bpf_c000_1 0) vcvs gain=-9.807852804032e-01
SCONVQ_c000_1_11 (conv_q_src_c000_1_11 conv_q_c000_1 conv_win_1_11 0) relay vt1=-1m vt2=1m ropen=ropen_mix rclosed=rclosed_mix
ECONVI_c000_1_12 (conv_i_src_c000_1_12 0 conv_bpf_c000_1 0) vcvs gain=1.950903220161e-01
SCONVI_c000_1_12 (conv_i_src_c000_1_12 conv_i_c000_1 conv_win_1_12 0) relay vt1=-1m vt2=1m ropen=ropen_mix rclosed=rclosed_mix
ECONVQ_c000_1_12 (conv_q_src_c000_1_12 0 conv_bpf_c000_1 0) vcvs gain=-9.807852804032e-01
SCONVQ_c000_1_12 (conv_q_src_c000_1_12 conv_q_c000_1 conv_win_1_12 0) relay vt1=-1m vt2=1m ropen=ropen_mix rclosed=rclosed_mix
ECONVI_c000_1_13 (conv_i_src_c000_1_13 0 conv_bpf_c000_1 0) vcvs gain=5.555702330196e-01
SCONVI_c000_1_13 (conv_i_src_c000_1_13 conv_i_c000_1 conv_win_1_13 0) relay vt1=-1m vt2=1m ropen=ropen_mix rclosed=rclosed_mix
ECONVQ_c000_1_13 (conv_q_src_c000_1_13 0 conv_bpf_c000_1 0) vcvs gain=-8.314696123025e-01
SCONVQ_c000_1_13 (conv_q_src_c000_1_13 conv_q_c000_1 conv_win_1_13 0) relay vt1=-1m vt2=1m ropen=ropen_mix rclosed=rclosed_mix
ECONVI_c000_1_14 (conv_i_src_c000_1_14 0 conv_bpf_c000_1 0) vcvs gain=8.314696123025e-01
SCONVI_c000_1_14 (conv_i_src_c000_1_14 conv_i_c000_1 conv_win_1_14 0) relay vt1=-1m vt2=1m ropen=ropen_mix rclosed=rclosed_mix
ECONVQ_c000_1_14 (conv_q_src_c000_1_14 0 conv_bpf_c000_1 0) vcvs gain=-5.555702330196e-01
SCONVQ_c000_1_14 (conv_q_src_c000_1_14 conv_q_c000_1 conv_win_1_14 0) relay vt1=-1m vt2=1m ropen=ropen_mix rclosed=rclosed_mix
ECONVI_c000_1_15 (conv_i_src_c000_1_15 0 conv_bpf_c000_1 0) vcvs gain=9.807852804032e-01
SCONVI_c000_1_15 (conv_i_src_c000_1_15 conv_i_c000_1 conv_win_1_15 0) relay vt1=-1m vt2=1m ropen=ropen_mix rclosed=rclosed_mix
ECONVQ_c000_1_15 (conv_q_src_c000_1_15 0 conv_bpf_c000_1 0) vcvs gain=-1.950903220161e-01
SCONVQ_c000_1_15 (conv_q_src_c000_1_15 conv_q_c000_1 conv_win_1_15 0) relay vt1=-1m vt2=1m ropen=ropen_mix rclosed=rclosed_mix
RCONVI_c000_1 (conv_i_c000_1 0) resistor r=1G
RCONVQ_c000_1 (conv_q_c000_1 0) resistor r=1G
RCONVINTI_c000_1 (conv_i_c000_1 ConvIcar_c000_1) resistor r=1k
CCONVINTI_c000_1 (ConvIcar_c000_1 0) capacitor c=80p
RCONVINTQ_c000_1 (conv_q_c000_1 ConvQcar_c000_1) resistor r=1k
CCONVINTQ_c000_1 (ConvQcar_c000_1 0) capacitor c=80p
save conv_bpf_c000_1 ConvIcar_c000_1 ConvQcar_c000_1

// conventional mixed baseline bl000, carrier_2: 750000000 Hz
CCONVBPF_c000_2 (bl000 n_conv_cbpf_c000_2) capacitor c=4.503163717437e-14
LCONVBPF_c000_2 (n_conv_cbpf_c000_2 conv_bpf_c000_2) inductor l=1.000000000000e-06
RCONVBPF_c000_2 (conv_bpf_c000_2 0) resistor r=2.356194490192e+02
ECONVI_c000_2_00 (conv_i_src_c000_2_00 0 conv_bpf_c000_2 0) vcvs gain=9.807852804032e-01
SCONVI_c000_2_00 (conv_i_src_c000_2_00 conv_i_c000_2 conv_win_2_00 0) relay vt1=-1m vt2=1m ropen=ropen_mix rclosed=rclosed_mix
ECONVQ_c000_2_00 (conv_q_src_c000_2_00 0 conv_bpf_c000_2 0) vcvs gain=1.950903220161e-01
SCONVQ_c000_2_00 (conv_q_src_c000_2_00 conv_q_c000_2 conv_win_2_00 0) relay vt1=-1m vt2=1m ropen=ropen_mix rclosed=rclosed_mix
ECONVI_c000_2_01 (conv_i_src_c000_2_01 0 conv_bpf_c000_2 0) vcvs gain=8.314696123025e-01
SCONVI_c000_2_01 (conv_i_src_c000_2_01 conv_i_c000_2 conv_win_2_01 0) relay vt1=-1m vt2=1m ropen=ropen_mix rclosed=rclosed_mix
ECONVQ_c000_2_01 (conv_q_src_c000_2_01 0 conv_bpf_c000_2 0) vcvs gain=5.555702330196e-01
SCONVQ_c000_2_01 (conv_q_src_c000_2_01 conv_q_c000_2 conv_win_2_01 0) relay vt1=-1m vt2=1m ropen=ropen_mix rclosed=rclosed_mix
ECONVI_c000_2_02 (conv_i_src_c000_2_02 0 conv_bpf_c000_2 0) vcvs gain=5.555702330196e-01
SCONVI_c000_2_02 (conv_i_src_c000_2_02 conv_i_c000_2 conv_win_2_02 0) relay vt1=-1m vt2=1m ropen=ropen_mix rclosed=rclosed_mix
ECONVQ_c000_2_02 (conv_q_src_c000_2_02 0 conv_bpf_c000_2 0) vcvs gain=8.314696123025e-01
SCONVQ_c000_2_02 (conv_q_src_c000_2_02 conv_q_c000_2 conv_win_2_02 0) relay vt1=-1m vt2=1m ropen=ropen_mix rclosed=rclosed_mix
ECONVI_c000_2_03 (conv_i_src_c000_2_03 0 conv_bpf_c000_2 0) vcvs gain=1.950903220161e-01
SCONVI_c000_2_03 (conv_i_src_c000_2_03 conv_i_c000_2 conv_win_2_03 0) relay vt1=-1m vt2=1m ropen=ropen_mix rclosed=rclosed_mix
ECONVQ_c000_2_03 (conv_q_src_c000_2_03 0 conv_bpf_c000_2 0) vcvs gain=9.807852804032e-01
SCONVQ_c000_2_03 (conv_q_src_c000_2_03 conv_q_c000_2 conv_win_2_03 0) relay vt1=-1m vt2=1m ropen=ropen_mix rclosed=rclosed_mix
ECONVI_c000_2_04 (conv_i_src_c000_2_04 0 conv_bpf_c000_2 0) vcvs gain=-1.950903220161e-01
SCONVI_c000_2_04 (conv_i_src_c000_2_04 conv_i_c000_2 conv_win_2_04 0) relay vt1=-1m vt2=1m ropen=ropen_mix rclosed=rclosed_mix
ECONVQ_c000_2_04 (conv_q_src_c000_2_04 0 conv_bpf_c000_2 0) vcvs gain=9.807852804032e-01
SCONVQ_c000_2_04 (conv_q_src_c000_2_04 conv_q_c000_2 conv_win_2_04 0) relay vt1=-1m vt2=1m ropen=ropen_mix rclosed=rclosed_mix
ECONVI_c000_2_05 (conv_i_src_c000_2_05 0 conv_bpf_c000_2 0) vcvs gain=-5.555702330196e-01
SCONVI_c000_2_05 (conv_i_src_c000_2_05 conv_i_c000_2 conv_win_2_05 0) relay vt1=-1m vt2=1m ropen=ropen_mix rclosed=rclosed_mix
ECONVQ_c000_2_05 (conv_q_src_c000_2_05 0 conv_bpf_c000_2 0) vcvs gain=8.314696123025e-01
SCONVQ_c000_2_05 (conv_q_src_c000_2_05 conv_q_c000_2 conv_win_2_05 0) relay vt1=-1m vt2=1m ropen=ropen_mix rclosed=rclosed_mix
ECONVI_c000_2_06 (conv_i_src_c000_2_06 0 conv_bpf_c000_2 0) vcvs gain=-8.314696123025e-01
SCONVI_c000_2_06 (conv_i_src_c000_2_06 conv_i_c000_2 conv_win_2_06 0) relay vt1=-1m vt2=1m ropen=ropen_mix rclosed=rclosed_mix
ECONVQ_c000_2_06 (conv_q_src_c000_2_06 0 conv_bpf_c000_2 0) vcvs gain=5.555702330196e-01
SCONVQ_c000_2_06 (conv_q_src_c000_2_06 conv_q_c000_2 conv_win_2_06 0) relay vt1=-1m vt2=1m ropen=ropen_mix rclosed=rclosed_mix
ECONVI_c000_2_07 (conv_i_src_c000_2_07 0 conv_bpf_c000_2 0) vcvs gain=-9.807852804032e-01