// Coherent-demodulation testbench for 32x32 OFDM/QAM-RRAM MVM
// Every BL/carrier path uses BPF, phase-window verification demodulator, and RC integration.
simulator lang=spectre
include "../netlist/clean_32x32_crossbar_sanity.scs"

parameters rclosed_mix=1 ropen_mix=1G

VREFI_0 (ref_i_0 0) vsource type=sine freq=250000000 ampl=1 phase=90
VREFQ_0 (ref_q_0 0) vsource type=sine freq=250000000 ampl=1 phase=0
RREFI_0 (ref_i_0 0) resistor r=1G
RREFQ_0 (ref_q_0 0) resistor r=1G
VWIN_0_00 (win_0_00 0) vsource type=pulse val0=-1 val1=1 period=4.000000000000e-09 width=2.500000000000e-10 delay=0.000000000000e+00 rise=1p fall=1p
VWIN_0_01 (win_0_01 0) vsource type=pulse val0=-1 val1=1 period=4.000000000000e-09 width=2.500000000000e-10 delay=2.500000000000e-10 rise=1p fall=1p
VWIN_0_02 (win_0_02 0) vsource type=pulse val0=-1 val1=1 period=4.000000000000e-09 width=2.500000000000e-10 delay=5.000000000000e-10 rise=1p fall=1p
VWIN_0_03 (win_0_03 0) vsource type=pulse val0=-1 val1=1 period=4.000000000000e-09 width=2.500000000000e-10 delay=7.500000000000e-10 rise=1p fall=1p
VWIN_0_04 (win_0_04 0) vsource type=pulse val0=-1 val1=1 period=4.000000000000e-09 width=2.500000000000e-10 delay=1.000000000000e-09 rise=1p fall=1p
VWIN_0_05 (win_0_05 0) vsource type=pulse val0=-1 val1=1 period=4.000000000000e-09 width=2.500000000000e-10 delay=1.250000000000e-09 rise=1p fall=1p
VWIN_0_06 (win_0_06 0) vsource type=pulse val0=-1 val1=1 period=4.000000000000e-09 width=2.500000000000e-10 delay=1.500000000000e-09 rise=1p fall=1p
VWIN_0_07 (win_0_07 0) vsource type=pulse val0=-1 val1=1 period=4.000000000000e-09 width=2.500000000000e-10 delay=1.750000000000e-09 rise=1p fall=1p
VWIN_0_08 (win_0_08 0) vsource type=pulse val0=-1 val1=1 period=4.000000000000e-09 width=2.500000000000e-10 delay=2.000000000000e-09 rise=1p fall=1p
VWIN_0_09 (win_0_09 0) vsource type=pulse val0=-1 val1=1 period=4.000000000000e-09 width=2.500000000000e-10 delay=2.250000000000e-09 rise=1p fall=1p
VWIN_0_10 (win_0_10 0) vsource type=pulse val0=-1 val1=1 period=4.000000000000e-09 width=2.500000000000e-10 delay=2.500000000000e-09 rise=1p fall=1p
VWIN_0_11 (win_0_11 0) vsource type=pulse val0=-1 val1=1 period=4.000000000000e-09 width=2.500000000000e-10 delay=2.750000000000e-09 rise=1p fall=1p
VWIN_0_12 (win_0_12 0) vsource type=pulse val0=-1 val1=1 period=4.000000000000e-09 width=2.500000000000e-10 delay=3.000000000000e-09 rise=1p fall=1p
VWIN_0_13 (win_0_13 0) vsource type=pulse val0=-1 val1=1 period=4.000000000000e-09 width=2.500000000000e-10 delay=3.250000000000e-09 rise=1p fall=1p
VWIN_0_14 (win_0_14 0) vsource type=pulse val0=-1 val1=1 period=4.000000000000e-09 width=2.500000000000e-10 delay=3.500000000000e-09 rise=1p fall=1p
VWIN_0_15 (win_0_15 0) vsource type=pulse val0=-1 val1=1 period=4.000000000000e-09 width=2.500000000000e-10 delay=3.750000000000e-09 rise=1p fall=1p

VREFI_1 (ref_i_1 0) vsource type=sine freq=500000000 ampl=1 phase=90
VREFQ_1 (ref_q_1 0) vsource type=sine freq=500000000 ampl=1 phase=0
RREFI_1 (ref_i_1 0) resistor r=1G
RREFQ_1 (ref_q_1 0) resistor r=1G
VWIN_1_00 (win_1_00 0) vsource type=pulse val0=-1 val1=1 period=2.000000000000e-09 width=1.250000000000e-10 delay=0.000000000000e+00 rise=1p fall=1p
VWIN_1_01 (win_1_01 0) vsource type=pulse val0=-1 val1=1 period=2.000000000000e-09 width=1.250000000000e-10 delay=1.250000000000e-10 rise=1p fall=1p
VWIN_1_02 (win_1_02 0) vsource type=pulse val0=-1 val1=1 period=2.000000000000e-09 width=1.250000000000e-10 delay=2.500000000000e-10 rise=1p fall=1p
VWIN_1_03 (win_1_03 0) vsource type=pulse val0=-1 val1=1 period=2.000000000000e-09 width=1.250000000000e-10 delay=3.750000000000e-10 rise=1p fall=1p
VWIN_1_04 (win_1_04 0) vsource type=pulse val0=-1 val1=1 period=2.000000000000e-09 width=1.250000000000e-10 delay=5.000000000000e-10 rise=1p fall=1p
VWIN_1_05 (win_1_05 0) vsource type=pulse val0=-1 val1=1 period=2.000000000000e-09 width=1.250000000000e-10 delay=6.250000000000e-10 rise=1p fall=1p
VWIN_1_06 (win_1_06 0) vsource type=pulse val0=-1 val1=1 period=2.000000000000e-09 width=1.250000000000e-10 delay=7.500000000000e-10 rise=1p fall=1p
VWIN_1_07 (win_1_07 0) vsource type=pulse val0=-1 val1=1 period=2.000000000000e-09 width=1.250000000000e-10 delay=8.750000000000e-10 rise=1p fall=1p
VWIN_1_08 (win_1_08 0) vsource type=pulse val0=-1 val1=1 period=2.000000000000e-09 width=1.250000000000e-10 delay=1.000000000000e-09 rise=1p fall=1p
VWIN_1_09 (win_1_09 0) vsource type=pulse val0=-1 val1=1 period=2.000000000000e-09 width=1.250000000000e-10 delay=1.125000000000e-09 rise=1p fall=1p
VWIN_1_10 (win_1_10 0) vsource type=pulse val0=-1 val1=1 period=2.000000000000e-09 width=1.250000000000e-10 delay=1.250000000000e-09 rise=1p fall=1p
VWIN_1_11 (win_1_11 0) vsource type=pulse val0=-1 val1=1 period=2.000000000000e-09 width=1.250000000000e-10 delay=1.375000000000e-09 rise=1p fall=1p
VWIN_1_12 (win_1_12 0) vsource type=pulse val0=-1 val1=1 period=2.000000000000e-09 width=1.250000000000e-10 delay=1.500000000000e-09 rise=1p fall=1p
VWIN_1_13 (win_1_13 0) vsource type=pulse val0=-1 val1=1 period=2.000000000000e-09 width=1.250000000000e-10 delay=1.625000000000e-09 rise=1p fall=1p
VWIN_1_14 (win_1_14 0) vsource type=pulse val0=-1 val1=1 period=2.000000000000e-09 width=1.250000000000e-10 delay=1.750000000000e-09 rise=1p fall=1p
VWIN_1_15 (win_1_15 0) vsource type=pulse val0=-1 val1=1 period=2.000000000000e-09 width=1.250000000000e-10 delay=1.875000000000e-09 rise=1p fall=1p

VREFI_2 (ref_i_2 0) vsource type=sine freq=750000000 ampl=1 phase=90
VREFQ_2 (ref_q_2 0) vsource type=sine freq=750000000 ampl=1 phase=0
RREFI_2 (ref_i_2 0) resistor r=1G
RREFQ_2 (ref_q_2 0) resistor r=1G
VWIN_2_00 (win_2_00 0) vsource type=pulse val0=-1 val1=1 period=1.333333333333e-09 width=8.333333333333e-11 delay=0.000000000000e+00 rise=1p fall=1p
VWIN_2_01 (win_2_01 0) vsource type=pulse val0=-1 val1=1 period=1.333333333333e-09 width=8.333333333333e-11 delay=8.333333333333e-11 rise=1p fall=1p
VWIN_2_02 (win_2_02 0) vsource type=pulse val0=-1 val1=1 period=1.333333333333e-09 width=8.333333333333e-11 delay=1.666666666667e-10 rise=1p fall=1p
VWIN_2_03 (win_2_03 0) vsource type=pulse val0=-1 val1=1 period=1.333333333333e-09 width=8.333333333333e-11 delay=2.500000000000e-10 rise=1p fall=1p
VWIN_2_04 (win_2_04 0) vsource type=pulse val0=-1 val1=1 period=1.333333333333e-09 width=8.333333333333e-11 delay=3.333333333333e-10 rise=1p fall=1p
VWIN_2_05 (win_2_05 0) vsource type=pulse val0=-1 val1=1 period=1.333333333333e-09 width=8.333333333333e-11 delay=4.166666666667e-10 rise=1p fall=1p
VWIN_2_06 (win_2_06 0) vsource type=pulse val0=-1 val1=1 period=1.333333333333e-09 width=8.333333333333e-11 delay=5.000000000000e-10 rise=1p fall=1p
VWIN_2_07 (win_2_07 0) vsource type=pulse val0=-1 val1=1 period=1.333333333333e-09 width=8.333333333333e-11 delay=5.833333333333e-10 rise=1p fall=1p
VWIN_2_08 (win_2_08 0) vsource type=pulse val0=-1 val1=1 period=1.333333333333e-09 width=8.333333333333e-11 delay=6.666666666667e-10 rise=1p fall=1p
VWIN_2_09 (win_2_09 0) vsource type=pulse val0=-1 val1=1 period=1.333333333333e-09 width=8.333333333333e-11 delay=7.500000000000e-10 rise=1p fall=1p
VWIN_2_10 (win_2_10 0) vsource type=pulse val0=-1 val1=1 period=1.333333333333e-09 width=8.333333333333e-11 delay=8.333333333333e-10 rise=1p fall=1p
VWIN_2_11 (win_2_11 0) vsource type=pulse val0=-1 val1=1 period=1.333333333333e-09 width=8.333333333333e-11 delay=9.166666666667e-10 rise=1p fall=1p
VWIN_2_12 (win_2_12 0) vsource type=pulse val0=-1 val1=1 period=1.333333333333e-09 width=8.333333333333e-11 delay=1.000000000000e-09 rise=1p fall=1p
VWIN_2_13 (win_2_13 0) vsource type=pulse val0=-1 val1=1 period=1.333333333333e-09 width=8.333333333333e-11 delay=1.083333333333e-09 rise=1p fall=1p
VWIN_2_14 (win_2_14 0) vsource type=pulse val0=-1 val1=1 period=1.333333333333e-09 width=8.333333333333e-11 delay=1.166666666667e-09 rise=1p fall=1p
VWIN_2_15 (win_2_15 0) vsource type=pulse val0=-1 val1=1 period=1.333333333333e-09 width=8.333333333333e-11 delay=1.250000000000e-09 rise=1p fall=1p

VREFI_3 (ref_i_3 0) vsource type=sine freq=1000000000 ampl=1 phase=90
VREFQ_3 (ref_q_3 0) vsource type=sine freq=1000000000 ampl=1 phase=0
RREFI_3 (ref_i_3 0) resistor r=1G
RREFQ_3 (ref_q_3 0) resistor r=1G
VWIN_3_00 (win_3_00 0) vsource type=pulse val0=-1 val1=1 period=1.000000000000e-09 width=6.250000000000e-11 delay=0.000000000000e+00 rise=1p fall=1p
VWIN_3_01 (win_3_01 0) vsource type=pulse val0=-1 val1=1 period=1.000000000000e-09 width=6.250000000000e-11 delay=6.250000000000e-11 rise=1p fall=1p
VWIN_3_02 (win_3_02 0) vsource type=pulse val0=-1 val1=1 period=1.000000000000e-09 width=6.250000000000e-11 delay=1.250000000000e-10 rise=1p fall=1p
VWIN_3_03 (win_3_03 0) vsource type=pulse val0=-1 val1=1 period=1.000000000000e-09 width=6.250000000000e-11 delay=1.875000000000e-10 rise=1p fall=1p
VWIN_3_04 (win_3_04 0) vsource type=pulse val0=-1 val1=1 period=1.000000000000e-09 width=6.250000000000e-11 delay=2.500000000000e-10 rise=1p fall=1p
VWIN_3_05 (win_3_05 0) vsource type=pulse val0=-1 val1=1 period=1.000000000000e-09 width=6.250000000000e-11 delay=3.125000000000e-10 rise=1p fall=1p
VWIN_3_06 (win_3_06 0) vsource type=pulse val0=-1 val1=1 period=1.000000000000e-09 width=6.250000000000e-11 delay=3.750000000000e-10 rise=1p fall=1p
VWIN_3_07 (win_3_07 0) vsource type=pulse val0=-1 val1=1 period=1.000000000000e-09 width=6.250000000000e-11 delay=4.375000000000e-10 rise=1p fall=1p
VWIN_3_08 (win_3_08 0) vsource type=pulse val0=-1 val1=1 period=1.000000000000e-09 width=6.250000000000e-11 delay=5.000000000000e-10 rise=1p fall=1p
VWIN_3_09 (win_3_09 0) vsource type=pulse val0=-1 val1=1 period=1.000000000000e-09 width=6.250000000000e-11 delay=5.625000000000e-10 rise=1p fall=1p
VWIN_3_10 (win_3_10 0) vsource type=pulse val0=-1 val1=1 period=1.000000000000e-09 width=6.250000000000e-11 delay=6.250000000000e-10 rise=1p fall=1p
VWIN_3_11 (win_3_11 0) vsource type=pulse val0=-1 val1=1 period=1.000000000000e-09 width=6.250000000000e-11 delay=6.875000000000e-10 rise=1p fall=1p
VWIN_3_12 (win_3_12 0) vsource type=pulse val0=-1 val1=1 period=1.000000000000e-09 width=6.250000000000e-11 delay=7.500000000000e-10 rise=1p fall=1p
VWIN_3_13 (win_3_13 0) vsource type=pulse val0=-1 val1=1 period=1.000000000000e-09 width=6.250000000000e-11 delay=8.125000000000e-10 rise=1p fall=1p
VWIN_3_14 (win_3_14 0) vsource type=pulse val0=-1 val1=1 period=1.000000000000e-09 width=6.250000000000e-11 delay=8.750000000000e-10 rise=1p fall=1p
VWIN_3_15 (win_3_15 0) vsource type=pulse val0=-1 val1=1 period=1.000000000000e-09 width=6.250000000000e-11 delay=9.375000000000e-10 rise=1p fall=1p

// bl000, carrier_0: 250000000 Hz coherent I/Q phase-window verification-demod path
CBPF_c000_0 (bl000 n_cbpf_c000_0) capacitor c=4.052847345694e-13
LBPF_c000_0 (n_cbpf_c000_0 bpf_c000_0) inductor l=1.000000000000e-06
RBPF_c000_0 (bpf_c000_0 0) resistor r=7.853981633974e+01
EMIXI_c000_0_00 (mix_i_src_c000_0_00 0 bpf_c000_0 0) vcvs gain=9.807852804032e-01
SMIXI_c000_0_00 (mix_i_src_c000_0_00 mix_i_c000_0 win_0_00 0) relay vt1=-1m vt2=1m ropen=ropen_mix rclosed=rclosed_mix
EMIXQ_c000_0_00 (mix_q_src_c000_0_00 0 bpf_c000_0 0) vcvs gain=1.950903220161e-01
SMIXQ_c000_0_00 (mix_q_src_c000_0_00 mix_q_c000_0 win_0_00 0) relay vt1=-1m vt2=1m ropen=ropen_mix rclosed=rclosed_mix
EMIXI_c000_0_01 (mix_i_src_c000_0_01 0 bpf_c000_0 0) vcvs gain=8.314696123025e-01
SMIXI_c000_0_01 (mix_i_src_c000_0_01 mix_i_c000_0 win_0_01 0) relay vt1=-1m vt2=1m ropen=ropen_mix rclosed=rclosed_mix
EMIXQ_c000_0_01 (mix_q_src_c000_0_01 0 bpf_c000_0 0) vcvs gain=5.555702330196e-01
SMIXQ_c000_0_01 (mix_q_src_c000_0_01 mix_q_c000_0 win_0_01 0) relay vt1=-1m vt2=1m ropen=ropen_mix rclosed=rclosed_mix
EMIXI_c000_0_02 (mix_i_src_c000_0_02 0 bpf_c000_0 0) vcvs gain=5.555702330196e-01
SMIXI_c000_0_02 (mix_i_src_c000_0_02 mix_i_c000_0 win_0_02 0) relay vt1=-1m vt2=1m ropen=ropen_mix rclosed=rclosed_mix
EMIXQ_c000_0_02 (mix_q_src_c000_0_02 0 bpf_c000_0 0) vcvs gain=8.314696123025e-01
SMIXQ_c000_0_02 (mix_q_src_c000_0_02 mix_q_c000_0 win_0_02 0) relay vt1=-1m vt2=1m ropen=ropen_mix rclosed=rclosed_mix
EMIXI_c000_0_03 (mix_i_src_c000_0_03 0 bpf_c000_0 0) vcvs gain=1.950903220161e-01
SMIXI_c000_0_03 (mix_i_src_c000_0_03 mix_i_c000_0 win_0_03 0) relay vt1=-1m vt2=1m ropen=ropen_mix rclosed=rclosed_mix
EMIXQ_c000_0_03 (mix_q_src_c000_0_03 0 bpf_c000_0 0) vcvs gain=9.807852804032e-01
SMIXQ_c000_0_03 (mix_q_src_c000_0_03 mix_q_c000_0 win_0_03 0) relay vt1=-1m vt2=1m ropen=ropen_mix rclosed=rclosed_mix
EMIXI_c000_0_04 (mix_i_src_c000_0_04 0 bpf_c000_0 0) vcvs gain=-1.950903220161e-01
SMIXI_c000_0_04 (mix_i_src_c000_0_04 mix_i_c000_0 win_0_04 0) relay vt1=-1m vt2=1m ropen=ropen_mix rclosed=rclosed_mix
EMIXQ_c000_0_04 (mix_q_src_c000_0_04 0 bpf_c000_0 0) vcvs gain=9.807852804032e-01
SMIXQ_c000_0_04 (mix_q_src_c000_0_04 mix_q_c000_0 win_0_04 0) relay vt1=-1m vt2=1m ropen=ropen_mix rclosed=rclosed_mix
EMIXI_c000_0_05 (mix_i_src_c000_0_05 0 bpf_c000_0 0) vcvs gain=-5.555702330196e-01
SMIXI_c000_0_05 (mix_i_src_c000_0_05 mix_i_c000_0 win_0_05 0) relay vt1=-1m vt2=1m ropen=ropen_mix rclosed=rclosed_mix
EMIXQ_c000_0_05 (mix_q_src_c000_0_05 0 bpf_c000_0 0) vcvs gain=8.314696123025e-01
SMIXQ_c000_0_05 (mix_q_src_c000_0_05 mix_q_c000_0 win_0_05 0) relay vt1=-1m vt2=1m ropen=ropen_mix rclosed=rclosed_mix
EMIXI_c000_0_06 (mix_i_src_c000_0_06 0 bpf_c000_0 0) vcvs gain=-8.314696123025e-01
SMIXI_c000_0_06 (mix_i_src_c000_0_06 mix_i_c000_0 win_0_06 0) relay vt1=-1m vt2=1m ropen=ropen_mix rclosed=rclosed_mix
EMIXQ_c000_0_06 (mix_q_src_c000_0_06 0 bpf_c000_0 0) vcvs gain=5.555702330196e-01
SMIXQ_c000_0_06 (mix_q_src_c000_0_06 mix_q_c000_0 win_0_06 0) relay vt1=-1m vt2=1m ropen=ropen_mix rclosed=rclosed_mix
EMIXI_c000_0_07 (mix_i_src_c000_0_07 0 bpf_c000_0 0) vcvs gain=-9.807852804032e-01
SMIXI_c000_0_07 (mix_i_src_c000_0_07 mix_i_c000_0 win_0_07 0) relay vt1=-1m vt2=1m ropen=ropen_mix rclosed=rclosed_mix
EMIXQ_c000_0_07 (mix_q_src_c000_0_07 0 bpf_c000_0 0) vcvs gain=1.950903220161e-01
SMIXQ_c000_0_07 (mix_q_src_c000_0_07 mix_q_c000_0 win_0_07 0) relay vt1=-1m vt2=1m ropen=ropen_mix rclosed=rclosed_mix
EMIXI_c000_0_08 (mix_i_src_c000_0_08 0 bpf_c000_0 0) vcvs gain=-9.807852804032e-01
SMIXI_c000_0_08 (mix_i_src_c000_0_08 mix_i_c000_0 win_0_08 0) relay vt1=-1m vt2=1m ropen=ropen_mix rclosed=rclosed_mix
EMIXQ_c000_0_08 (mix_q_src_c000_0_08 0 bpf_c000_0 0) vcvs gain=-1.950903220161e-01
SMIXQ_c000_0_08 (mix_q_src_c000_0_08 mix_q_c000_0 win_0_08 0) relay vt1=-1m vt2=1m ropen=ropen_mix rclosed=rclosed_mix
EMIXI_c000_0_09 (mix_i_src_c000_0_09 0 bpf_c000_0 0) vcvs gain=-8.314696123025e-01
SMIXI_c000_0_09 (mix_i_src_c000_0_09 mix_i_c000_0 win_0_09 0) relay vt1=-1m vt2=1m ropen=ropen_mix rclosed=rclosed_mix
EMIXQ_c000_0_09 (mix_q_src_c000_0_09 0 bpf_c000_0 0) vcvs gain=-5.555702330196e-01
SMIXQ_c000_0_09 (mix_q_src_c000_0_09 mix_q_c000_0 win_0_09 0) relay vt1=-1m vt2=1m ropen=ropen_mix rclosed=rclosed_mix
EMIXI_c000_0_10 (mix_i_src_c000_0_10 0 bpf_c000_0 0) vcvs gain=-5.555702330196e-01
SMIXI_c000_0_10 (mix_i_src_c000_0_10 mix_i_c000_0 win_0_10 0) relay vt1=-1m vt2=1m ropen=ropen_mix rclosed=rclosed_mix
EMIXQ_c000_0_10 (mix_q_src_c000_0_10 0 bpf_c000_0 0) vcvs gain=-8.314696123025e-01
SMIXQ_c000_0_10 (mix_q_src_c000_0_10 mix_q_c000_0 win_0_10 0) relay vt1=-1m vt2=1m ropen=ropen_mix rclosed=rclosed_mix
EMIXI_c000_0_11 (mix_i_src_c000_0_11 0 bpf_c000_0 0) vcvs gain=-1.950903220161e-01
SMIXI_c000_0_11 (mix_i_src_c000_0_11 mix_i_c000_0 win_0_11 0) relay vt1=-1m vt2=1m ropen=ropen_mix rclosed=rclosed_mix
EMIXQ_c000_0_11 (mix_q_src_c000_0_11 0 bpf_c000_0 0) vcvs gain=-9.807852804032e-01
SMIXQ_c000_0_11 (mix_q_src_c000_0_11 mix_q_c000_0 win_0_11 0) relay vt1=-1m vt2=1m ropen=ropen_mix rclosed=rclosed_mix
EMIXI_c000_0_12 (mix_i_src_c000_0_12 0 bpf_c000_0 0) vcvs gain=1.950903220161e-01
SMIXI_c000_0_12 (mix_i_src_c000_0_12 mix_i_c000_0 win_0_12 0) relay vt1=-1m vt2=1m ropen=ropen_mix rclosed=rclosed_mix
EMIXQ_c000_0_12 (mix_q_src_c000_0_12 0 bpf_c000_0 0) vcvs gain=-9.807852804032e-01
SMIXQ_c000_0_12 (mix_q_src_c000_0_12 mix_q_c000_0 win_0_12 0) relay vt1=-1m vt2=1m ropen=ropen_mix rclosed=rclosed_mix
EMIXI_c000_0_13 (mix_i_src_c000_0_13 0 bpf_c000_0 0) vcvs gain=5.555702330196e-01
SMIXI_c000_0_13 (mix_i_src_c000_0_13 mix_i_c000_0 win_0_13 0) relay vt1=-1m vt2=1m ropen=ropen_mix rclosed=rclosed_mix
EMIXQ_c000_0_13 (mix_q_src_c000_0_13 0 bpf_c000_0 0) vcvs gain=-8.314696123025e-01
SMIXQ_c000_0_13 (mix_q_src_c000_0_13 mix_q_c000_0 win_0_13 0) relay vt1=-1m vt2=1m ropen=ropen_mix rclosed=rclosed_mix
EMIXI_c000_0_14 (mix_i_src_c000_0_14 0 bpf_c000_0 0) vcvs gain=8.314696123025e-01
SMIXI_c000_0_14 (mix_i_src_c000_0_14 mix_i_c000_0 win_0_14 0) relay vt1=-1m vt2=1m ropen=ropen_mix rclosed=rclosed_mix
EMIXQ_c000_0_14 (mix_q_src_c000_0_14 0 bpf_c000_0 0) vcvs gain=-5.555702330196e-01
SMIXQ_c000_0_14 (mix_q_src_c000_0_14 mix_q_c000_0 win_0_14 0) relay vt1=-1m vt2=1m ropen=ropen_mix rclosed=rclosed_mix
EMIXI_c000_0_15 (mix_i_src_c000_0_15 0 bpf_c000_0 0) vcvs gain=9.807852804032e-01
SMIXI_c000_0_15 (mix_i_src_c000_0_15 mix_i_c000_0 win_0_15 0) relay vt1=-1m vt2=1m ropen=ropen_mix rclosed=rclosed_mix
EMIXQ_c000_0_15 (mix_q_src_c000_0_15 0 bpf_c000_0 0) vcvs gain=-1.950903220161e-01
SMIXQ_c000_0_15 (mix_q_src_c000_0_15 mix_q_c000_0 win_0_15 0) relay vt1=-1m vt2=1m ropen=ropen_mix rclosed=rclosed_mix
RMIXI_c000_0 (mix_i_c000_0 0) resistor r=1G
RMIXQ_c000_0 (mix_q_c000_0 0) resistor r=1G
RINTI_c000_0 (mix_i_c000_0 Icar_c000_0) resistor r=1k
CINTI_c000_0 (Icar_c000_0 0) capacitor c=80p
RINTQ_c000_0 (mix_q_c000_0 Qcar_c000_0) resistor r=1k
CINTQ_c000_0 (Qcar_c000_0 0) capacitor c=80p
save bpf_c000_0 Icar_c000_0 Qcar_c000_0

// bl000, carrier_1: 500000000 Hz coherent I/Q phase-window verification-demod path
CBPF_c000_1 (bl000 n_cbpf_c000_1) capacitor c=1.013211836423e-13
LBPF_c000_1 (n_cbpf_c000_1 bpf_c000_1) inductor l=1.000000000000e-06
RBPF_c000_1 (bpf_c000_1 0) resistor r=1.570796326795e+02
EMIXI_c000_1_00 (mix_i_src_c000_1_00 0 bpf_c000_1 0) vcvs gain=9.807852804032e-01
SMIXI_c000_1_00 (mix_i_src_c000_1_00 mix_i_c000_1 win_1_00 0) relay vt1=-1m vt2=1m ropen=ropen_mix rclosed=rclosed_mix
EMIXQ_c000_1_00 (mix_q_src_c000_1_00 0 bpf_c000_1 0) vcvs gain=1.950903220161e-01
SMIXQ_c000_1_00 (mix_q_src_c000_1_00 mix_q_c000_1 win_1_00 0) relay vt1=-1m vt2=1m ropen=ropen_mix rclosed=rclosed_mix
EMIXI_c000_1_01 (mix_i_src_c000_1_01 0 bpf_c000_1 0) vcvs gain=8.314696123025e-01
SMIXI_c000_1_01 (mix_i_src_c000_1_01 mix_i_c000_1 win_1_01 0) relay vt1=-1m vt2=1m ropen=ropen_mix rclosed=rclosed_mix
EMIXQ_c000_1_01 (mix_q_src_c000_1_01 0 bpf_c000_1 0) vcvs gain=5.555702330196e-01
SMIXQ_c000_1_01 (mix_q_src_c000_1_01 mix_q_c000_1 win_1_01 0) relay vt1=-1m vt2=1m ropen=ropen_mix rclosed=rclosed_mix
EMIXI_c000_1_02 (mix_i_src_c000_1_02 0 bpf_c000_1 0) vcvs gain=5.555702330196e-01
SMIXI_c000_1_02 (mix_i_src_c000_1_02 mix_i_c000_1 win_1_02 0) relay vt1=-1m vt2=1m ropen=ropen_mix rclosed=rclosed_mix
EMIXQ_c000_1_02 (mix_q_src_c000_1_02 0 bpf_c000_1 0) vcvs gain=8.314696123025e-01
SMIXQ_c000_1_02 (mix_q_src_c000_1_02 mix_q_c000_1 win_1_02 0) relay vt1=-1m vt2=1m ropen=ropen_mix rclosed=rclosed_mix
EMIXI_c000_1_03 (mix_i_src_c000_1_03 0 bpf_c000_1 0) vcvs gain=1.950903220161e-01
SMIXI_c000_1_03 (mix_i_src_c000_1_03 mix_i_c000_1 win_1_03 0) relay vt1=-1m vt2=1m ropen=ropen_mix rclosed=rclosed_mix
EMIXQ_c000_1_03 (mix_q_src_c000_1_03 0 bpf_c000_1 0) vcvs gain=9.807852804032e-01
SMIXQ_c000_1_03 (mix_q_src_c000_1_03 mix_q_c000_1 win_1_03 0) relay vt1=-1m vt2=1m ropen=ropen_mix rclosed=rclosed_mix
EMIXI_c000_1_04 (mix_i_src_c000_1_04 0 bpf_c000_1 0) vcvs gain=-1.950903220161e-01
SMIXI_c000_1_04 (mix_i_src_c000_1_04 mix_i_c000_1 win_1_04 0) relay vt1=-1m vt2=1m ropen=ropen_mix rclosed=rclosed_mix
EMIXQ_c000_1_04 (mix_q_src_c000_1_04 0 bpf_c000_1 0) vcvs gain=9.807852804032e-01
SMIXQ_c000_1_04 (mix_q_src_c000_1_04 mix_q_c000_1 win_1_04 0) relay vt1=-1m vt2=1m ropen=ropen_mix rclosed=rclosed_mix
EMIXI_c000_1_05 (mix_i_src_c000_1_05 0 bpf_c000_1 0) vcvs gain=-5.555702330196e-01
SMIXI_c000_1_05 (mix_i_src_c000_1_05 mix_i_c000_1 win_1_05 0) relay vt1=-1m vt2=1m ropen=ropen_mix rclosed=rclosed_mix
EMIXQ_c000_1_05 (mix_q_src_c000_1_05 0 bpf_c000_1 0) vcvs gain=8.314696123025e-01
SMIXQ_c000_1_05 (mix_q_src_c000_1_05 mix_q_c000_1 win_1_05 0) relay vt1=-1m vt2=1m ropen=ropen_mix rclosed=rclosed_mix
EMIXI_c000_1_06 (mix_i_src_c000_1_06 0 bpf_c000_1 0) vcvs gain=-8.314696123025e-01
SMIXI_c000_1_06 (mix_i_src_c000_1_06 mix_i_c000_1 win_1_06 0) relay vt1=-1m vt2=1m ropen=ropen_mix rclosed=rclosed_mix
EMIXQ_c000_1_06 (mix_q_src_c000_1_06 0 bpf_c000_1 0) vcvs gain=5.555702330196e-01
SMIXQ_c000_1_06 (mix_q_src_c000_1_06 mix_q_c000_1 win_1_06 0) relay vt1=-1m vt2=1m ropen=ropen_mix rclosed=rclosed_mix
EMIXI_c000_1_07 (mix_i_src_c000_1_07 0 bpf_c000_1 0) vcvs gain=-9.807852804032e-01
SMIXI_c000_1_07 (mix_i_src_c000_1_07 mix_i_c000_1 win_1_07 0) relay vt1=-1m vt2=1m ropen=ropen_mix rclosed=rclosed_mix
EMIXQ_c000_1_07 (mix_q_src_c000_1_07 0 bpf_c000_1 0) vcvs gain=1.950903220161e-01
SMIXQ_c000_1_07 (mix_q_src_c000_1_07 mix_q_c000_1 win_1_07 0) relay vt1=-1m vt2=1m ropen=ropen_mix rclosed=rclosed_mix
EMIXI_c000_1_08 (mix_i_src_c000_1_08 0 bpf_c000_1 0) vcvs gain=-9.807852804032e-01
SMIXI_c000_1_08 (mix_i_src_c000_1_08 mix_i_c000_1 win_1_08 0) relay vt1=-1m vt2=1m ropen=ropen_mix rclosed=rclosed_mix
EMIXQ_c000_1_08 (mix_q_src_c000_1_08 0 bpf_c000_1 0) vcvs gain=-1.950903220161e-01
SMIXQ_c000_1_08 (mix_q_src_c000_1_08 mix_q_c000_1 win_1_08 0) relay vt1=-1m vt2=1m ropen=ropen_mix rclosed=rclosed_mix
EMIXI_c000_1_09 (mix_i_src_c000_1_09 0 bpf_c000_1 0) vcvs gain=-8.314696123025e-01
SMIXI_c000_1_09 (mix_i_src_c000_1_09 mix_i_c000_1 win_1_09 0) relay vt1=-1m vt2=1m ropen=ropen_mix rclosed=rclosed_mix
EMIXQ_c000_1_09 (mix_q_src_c000_1_09 0 bpf_c000_1 0) vcvs gain=-5.555702330196e-01
SMIXQ_c000_1_09 (mix_q_src_c000_1_09 mix_q_c000_1 win_1_09 0) relay vt1=-1m vt2=1m ropen=ropen_mix rclosed=rclosed_mix
EMIXI_c000_1_10 (mix_i_src_c000_1_10 0 bpf_c000_1 0) vcvs gain=-5.555702330196e-01
SMIXI_c000_1_10 (mix_i_src_c000_1_10 mix_i_c000_1 win_1_10 0) relay vt1=-1m vt2=1m ropen=ropen_mix rclosed=rclosed_mix
EMIXQ_c000_1_10 (mix_q_src_c000_1_10 0 bpf_c000_1 0) vcvs gain=-8.314696123025e-01
SMIXQ_c000_1_10 (mix_q_src_c000_1_10 mix_q_c000_1 win_1_10 0) relay vt1=-1m vt2=1m ropen=ropen_mix rclosed=rclosed_mix
EMIXI_c000_1_11 (mix_i_src_c000_1_11 0 bpf_c000_1 0) vcvs gain=-1.950903220161e-01
SMIXI_c000_1_11 (mix_i_src_c000_1_11 mix_i_c000_1 win_1_11 0) relay vt1=-1m vt2=1m ropen=ropen_mix rclosed=rclosed_mix
EMIXQ_c000_1_11 (mix_q_src_c000_1_11 0 bpf_c000_1 0) vcvs gain=-9.807852804032e-01
SMIXQ_c000_1_11 (mix_q_src_c000_1_11 mix_q_c000_1 win_1_11 0) relay vt1=-1m vt2=1m ropen=ropen_mix rclosed=rclosed_mix
EMIXI_c000_1_12 (mix_i_src_c000_1_12 0 bpf_c000_1 0) vcvs gain=1.950903220161e-01
SMIXI_c000_1_12 (mix_i_src_c000_1_12 mix_i_c000_1 win_1_12 0) relay vt1=-1m vt2=1m ropen=ropen_mix rclosed=rclosed_mix
EMIXQ_c000_1_12 (mix_q_src_c000_1_12 0 bpf_c000_1 0) vcvs gain=-9.807852804032e-01
SMIXQ_c000_1_12 (mix_q_src_c000_1_12 mix_q_c000_1 win_1_12 0) relay vt1=-1m vt2=1m ropen=ropen_mix rclosed=rclosed_mix
EMIXI_c000_1_13 (mix_i_src_c000_1_13 0 bpf_c000_1 0) vcvs gain=5.555702330196e-01
SMIXI_c000_1_13 (mix_i_src_c000_1_13 mix_i_c000_1 win_1_13 0) relay vt1=-1m vt2=1m ropen=ropen_mix rclosed=rclosed_mix
EMIXQ_c000_1_13 (mix_q_src_c000_1_13 0 bpf_c000_1 0) vcvs gain=-8.314696123025e-01
SMIXQ_c000_1_13 (mix_q_src_c000_1_13 mix_q_c000_1 win_1_13 0) relay vt1=-1m vt2=1m ropen=ropen_mix rclosed=rclosed_mix
EMIXI_c000_1_14 (mix_i_src_c000_1_14 0 bpf_c000_1 0) vcvs gain=8.314696123025e-01
SMIXI_c000_1_14 (mix_i_src_c000_1_14 mix_i_c000_1 win_1_14 0) relay vt1=-1m vt2=1m ropen=ropen_mix rclosed=rclosed_mix
EMIXQ_c000_1_14 (mix_q_src_c000_1_14 0 bpf_c000_1 0) vcvs gain=-5.555702330196e-01
SMIXQ_c000_1_14 (mix_q_src_c000_1_14 mix_q_c000_1 win_1_14 0) relay vt1=-1m vt2=1m ropen=ropen_mix rclosed=rclosed_mix
EMIXI_c000_1_15 (mix_i_src_c000_1_15 0 bpf_c000_1 0) vcvs gain=9.807852804032e-01
SMIXI_c000_1_15 (mix_i_src_c000_1_15 mix_i_c000_1 win_1_15 0) relay vt1=-1m vt2=1m ropen=ropen_mix rclosed=rclosed_mix
EMIXQ_c000_1_15 (mix_q_src_c000_1_15 0 bpf_c000_1 0) vcvs gain=-1.950903220161e-01
SMIXQ_c000_1_15 (mix_q_src_c000_1_15 mix_q_c000_1 win_1_15 0) relay vt1=-1m vt2=1m ropen=ropen_mix rclosed=rclosed_mix
RMIXI_c000_1 (mix_i_c000_1 0) resistor r=1G
RMIXQ_c000_1 (mix_q_c000_1 0) resistor r=1G
RINTI_c000_1 (mix_i_c000_1 Icar_c000_1) resistor r=1k
CINTI_c000_1 (Icar_c000_1 0) capacitor c=80p
RINTQ_c000_1 (mix_q_c000_1 Qcar_c000_1) resistor r=1k
CINTQ_c000_1 (Qcar_c000_1 0) capacitor c=80p
save bpf_c000_1 Icar_c000_1 Qcar_c000_1

// bl000, carrier_2: 750000000 Hz coherent I/Q phase-window verification-demod path
CBPF_c000_2 (bl000 n_cbpf_c000_2) capacitor c=4.503163717437e-14
LBPF_c000_2 (n_cbpf_c000_2 bpf_c000_2) inductor l=1.000000000000e-06
RBPF_c000_2 (bpf_c000_2 0) resistor r=2.356194490192e+02
EMIXI_c000_2_00 (mix_i_src_c000_2_00 0 bpf_c000_2 0) vcvs gain=9.807852804032e-01
SMIXI_c000_2_00 (mix_i_src_c000_2_00 mix_i_c000_2 win_2_00 0) relay vt1=-1m vt2=1m ropen=ropen_mix rclosed=rclosed_mix
EMIXQ_c000_2_00 (mix_q_src_c000_2_00 0 bpf_c000_2 0) vcvs gain=1.950903220161e-01
SMIXQ_c000_2_00 (mix_q_src_c000_2_00 mix_q_c000_2 win_2_00 0) relay vt1=-1m vt2=1m ropen=ropen_mix rclosed=rclosed_mix
EMIXI_c000_2_01 (mix_i_src_c000_2_01 0 bpf_c000_2 0) vcvs gain=8.314696123025e-01
SMIXI_c000_2_01 (mix_i_src_c000_2_01 mix_i_c000_2 win_2_01 0) relay vt1=-1m vt2=1m ropen=ropen_mix rclosed=rclosed_mix
EMIXQ_c000_2_01 (mix_q_src_c000_2_01 0 bpf_c000_2 0) vcvs gain=5.555702330196e-01
SMIXQ_c000_2_01 (mix_q_src_c000_2_01 mix_q_c000_2 win_2_01 0) relay vt1=-1m vt2=1m ropen=ropen_mix rclosed=rclosed_mix
EMIXI_c000_2_02 (mix_i_src_c000_2_02 0 bpf_c000_2 0) vcvs gain=5.555702330196e-01
SMIXI_c000_2_02 (mix_i_src_c000_2_02 mix_i_c000_2 win_2_02 0) relay vt1=-1m vt2=1m ropen=ropen_mix rclosed=rclosed_mix
EMIXQ_c000_2_02 (mix_q_src_c000_2_02 0 bpf_c000_2 0) vcvs gain=8.314696123025e-01
SMIXQ_c000_2_02 (mix_q_src_c000_2_02 mix_q_c000_2 win_2_02 0) relay vt1=-1m vt2=1m ropen=ropen_mix rclosed=rclosed_mix
EMIXI_c000_2_03 (mix_i_src_c000_2_03 0 bpf_c000_2 0) vcvs gain=1.950903220161e-01
SMIXI_c000_2_03 (mix_i_src_c000_2_03 mix_i_c000_2 win_2_03 0) relay vt1=-1m vt2=1m ropen=ropen_mix rclosed=rclosed_mix
EMIXQ_c000_2_03 (mix_q_src_c000_2_03 0 bpf_c000_2 0) vcvs gain=9.807852804032e-01
SMIXQ_c000_2_03 (mix_q_src_c000_2_03 mix_q_c000_2 win_2_03 0) relay vt1=-1m vt2=1m ropen=ropen_mix rclosed=rclosed_mix
EMIXI_c000_2_04 (mix_i_src_c000_2_04 0 bpf_c000_2 0) vcvs gain=-1.950903220161e-01
SMIXI_c000_2_04 (mix_i_src_c000_2_04 mix_i_c000_2 win_2_04 0) relay vt1=-1m vt2=1m ropen=ropen_mix rclosed=rclosed_mix
EMIXQ_c000_2_04 (mix_q_src_c000_2_04 0 bpf_c000_2 0) vcvs gain=9.807852804032e-01
SMIXQ_c000_2_04 (mix_q_src_c000_2_04 mix_q_c000_2 win_2_04 0) relay vt1=-1m vt2=1m ropen=ropen_mix rclosed=rclosed_mix
EMIXI_c000_2_05 (mix_i_src_c000_2_05 0 bpf_c000_2 0) vcvs gain=-5.555702330196e-01
SMIXI_c000_2_05 (mix_i_src_c000_2_05 mix_i_c000_2 win_2_05 0) relay vt1=-1m vt2=1m ropen=ropen_mix rclosed=rclosed_mix
EMIXQ_c000_2_05 (mix_q_src_c000_2_05 0 bpf_c000_2 0) vcvs gain=8.314696123025e-01
SMIXQ_c000_2_05 (mix_q_src_c000_2_05 mix_q_c000_2 win_2_05 0) relay vt1=-1m vt2=1m ropen=ropen_mix rclosed=rclosed_mix
EMIXI_c000_2_06 (mix_i_src_c000_2_06 0 bpf_c000_2 0) vcvs gain=-8.314696123025e-01
SMIXI_c000_2_06 (mix_i_src_c000_2_06 mix_i_c000_2 win_2_06 0) relay vt1=-1m vt2=1m ropen=ropen_mix rclosed=rclosed_mix
EMIXQ_c000_2_06 (mix_q_src_c000_2_06 0 bpf_c000_2 0) vcvs gain=5.555702330196e-01
SMIXQ_c000_2_06 (mix_q_src_c000_2_06 mix_q_c000_2 win_2_06 0) relay vt1=-1m vt2=1m ropen=ropen_mix rclosed=rclosed_mix
EMIXI_c000_2_07 (mix_i_src_c000_2_07 0 bpf_c000_2 0) vcvs gain=-9.807852804032e-01
SMIXI_c000_2_07 (mix_i_src_c000_2_07 mix_i_c000_2 win_2_07 0) relay vt1=-1m vt2=1m ropen=ropen_mix rclosed=rclosed_mix
EMIXQ_c000_2_07 (mix_q_src_c000_2_07 0 bpf_c000_2 0) vcvs gain=1.950903220161e-01
SMIXQ_c000_2_07 (mix_q_src_c000_2_07 mix_q_c000_2 win_2_07 0) relay vt1=-1m vt2=1m ropen=ropen_mix rclosed=rclosed_mix
EMIXI_c000_2_08 (mix_i_src_c000_2_08 0 bpf_c000_2 0) vcvs gain=-9.807852804032e-01
SMIXI_c000_2_08 (mix_i_src_c000_2_08 mix_i_c000_2 win_2_08 0) relay vt1=-1m vt2=1m ropen=ropen_mix rclosed=rclosed_mix
EMIXQ_c000_2_08 (mix_q_src_c000_2_08 0 bpf_c000_2 0) vcvs gain=-1.950903220161e-01
SMIXQ_c000_2_08 (mix_q_src_c000_2_08 mix_q_c000_2 win_2_08 0) relay vt1=-1m vt2=1m ropen=ropen_mix rclosed=rclosed_mix
EMIXI_c000_2_09 (mix_i_src_c000_2_09 0 bpf_c000_2 0) vcvs gain=-8.314696123025e-01
SMIXI_c000_2_09 (mix_i_src_c000_2_09 mix_i_c000_2 win_2_09 0) relay vt1=-1m vt2=1m ropen=ropen_mix rclosed=rclosed_mix
EMIXQ_c000_2_09 (mix_q_src_c000_2_09 0 bpf_c000_2 0) vcvs gain=-5.555702330196e-01
SMIXQ_c000_2_09 (mix_q_src_c000_2_09 mix_q_c000_2 win_2_09 0) relay vt1=-1m vt2=1m ropen=ropen_mix rclosed=rclosed_mix
EMIXI_c000_2_10 (mix_i_src_c000_2_10 0 bpf_c000_2 0) vcvs gain=-5.555702330196e-01
SMIXI_c000_2_10 (mix_i_src_c000_2_10 mix_i_c000_2 win_2_10 0) relay vt1=-1m vt2=1m ropen=ropen_mix rclosed=rclosed_mix
EMIXQ_c000_2_10 (mix_q_src_c000_2_10 0 bpf_c000_2 0) vcvs gain=-8.314696123025e-01
SMIXQ_c000_2_10 (mix_q_src_c000_2_10 mix_q_c000_2 win_2_10 0) relay vt1=-1m vt2=1m ropen=ropen_mix rclosed=rclosed_mix
EMIXI_c000_2_11 (mix_i_src_c000_2_11 0 bpf_c000_2 0) vcvs gain=-1.950903220161e-01
SMIXI_c000_2_11 (mix_i_src_c000_2_11 mix_i_c000_2 win_2_11 0) relay vt1=-1m vt2=1m ropen=ropen_mix rclosed=rclosed_mix
EMIXQ_c000_2_11 (mix_q_src_c000_2_11 0 bpf_c000_2 0) vcvs gain=-9.807852804032e-01
SMIXQ_c000_2_11 (mix_q_src_c000_2_11 mix_q_c000_2 win_2_11 0) relay vt1=-1m vt2=1m ropen=ropen_mix rclosed=rclosed_mix
EMIXI_c000_2_12 (mix_i_src_c000_2_12 0 bpf_c000_2 0) vcvs gain=1.950903220161e-01